Version 4
SHEET 1 880 680
WIRE 224 128 208 128
WIRE 336 128 304 128
WIRE 144 176 16 176
WIRE 16 208 16 176
WIRE 336 240 336 208
WIRE 208 272 208 224
WIRE 16 320 16 288
FLAG 208 272 0
FLAG 16 320 0
FLAG 336 240 0
SYMBOL npn 144 128 R0
SYMATTR InstName Q1
SYMATTR Value 2N2222
SYMBOL voltage 336 112 R0
WINDOW 3 24 44 Left 2
WINDOW 123 0 0 Left 2
WINDOW 39 0 0 Left 2
SYMATTR Value ""
SYMATTR InstName vcc
SYMBOL current 16 288 R180
WINDOW 0 24 80 Left 2
WINDOW 3 24 52 Left 2
WINDOW 123 0 0 Left 2
WINDOW 39 0 0 Left 2
SYMATTR InstName ib
SYMATTR Value 0
SYMBOL res 320 112 R90
WINDOW 0 0 56 VBottom 2
WINDOW 3 28 56 VBottom 2
SYMATTR InstName rc
SYMATTR Value 200
TEXT 144 336 Left 2 !.dc vcc 0 10  ib 1u 100u 10u
