Version 4
SHEET 1 880 680
WIRE 112 192 48 192
WIRE 256 192 192 192
WIRE 352 192 256 192
WIRE 496 192 432 192
WIRE 48 208 48 192
WIRE 192 288 48 288
WIRE 256 288 256 256
WIRE 256 288 192 288
WIRE 496 288 496 256
WIRE 496 288 256 288
WIRE 192 304 192 288
FLAG 192 304 0
SYMBOL cap 240 192 R0
SYMATTR InstName C1
SYMATTR Value 100µ
SYMBOL res 208 176 R90
WINDOW 0 0 56 VBottom 2
WINDOW 3 32 56 VTop 2
SYMATTR InstName R1
SYMATTR Value 220
SYMBOL voltage 48 192 R0
WINDOW 3 24 96 Invisible 2
WINDOW 123 0 0 Left 2
WINDOW 39 0 0 Left 2
SYMATTR Value PULSE(0 5 1n 1n 1n 0.5m 1m)
SYMATTR InstName V1
SYMBOL res 448 176 R90
WINDOW 0 0 56 VBottom 2
WINDOW 3 32 56 VTop 2
SYMATTR InstName R2
SYMATTR Value 500
SYMBOL cap 480 192 R0
SYMATTR InstName C2
SYMATTR Value 10µ
TEXT 32 328 Left 2 !.tran 0 300m 0
