Version 4
SHEET 1 880 680
WIRE 32 -64 -32 -64
WIRE 192 -64 112 -64
WIRE 208 -64 192 -64
WIRE 288 -64 272 -64
WIRE 400 -64 368 -64
WIRE 192 16 192 0
WIRE 192 16 -32 16
WIRE 272 16 272 0
WIRE 272 16 192 16
WIRE 400 16 400 0
WIRE 400 16 272 16
WIRE 272 64 272 16
FLAG 272 64 0
SYMBOL cap 208 0 R180
WINDOW 0 24 56 Left 2
WINDOW 3 24 8 Left 2
SYMATTR InstName C1
SYMATTR Value 1µ
SYMBOL res 128 -80 R90
WINDOW 0 0 56 VBottom 2
WINDOW 3 32 56 VTop 2
SYMATTR InstName R1
SYMATTR Value 1k
SYMBOL res 384 -80 R90
WINDOW 0 0 56 VBottom 2
WINDOW 3 32 56 VTop 2
SYMATTR InstName R2
SYMATTR Value 1k
SYMBOL voltage -32 -80 R0
WINDOW 3 24 96 Invisible 2
WINDOW 123 0 0 Left 2
WINDOW 39 0 0 Left 2
SYMATTR Value PULSE(0 5 1n 1n 1n 0.5m 1m)
SYMATTR InstName V1
SYMBOL cap 416 0 R180
WINDOW 0 24 56 Left 2
WINDOW 3 24 8 Left 2
SYMATTR InstName C2
SYMATTR Value 1µ
SYMBOL cap 272 -80 R90
WINDOW 0 0 32 VBottom 2
WINDOW 3 32 32 VTop 2
SYMATTR InstName C3
SYMATTR Value 1µ
SYMBOL diode 256 -64 R0
SYMATTR InstName D1
TEXT 32 232 Left 2 !.tran 0 110m 100m
